
**** 09/10/16 09:05:51 ******* PSpice 16.3.0 (June 2009) ****** ID# 0 ********

 ** Profile: "SCHEMATIC1-Vah-bias"  [ C:\USERS\YURETZZ\DOCUMENTS\дювмне наеяоевемхе\няжхккняйнохъ\VAHDIODIKA\CHAPTER01\PSPICE\Vah02\T


 ****     CIRCUIT DESCRIPTION


******************************************************************************




** Creating circuit file "Vah-bias.cir" 
** WARNING: THIS AUTOMATICALLY GENERATED FILE MAY BE OVERWRITTEN BY SUBSEQUENT SIMULATIONS

*Libraries: 
* Profile Libraries :
* Local Libraries :
* From [PSPICE NETLIST] section of C:\Cadence\SPB_16.3\tools\PSpice\PSpice.ini file:
.lib "nom.lib" 
.stmlib "C:\Cadence\SPB_16.3\tools\pspice\library\nom.lib" 

*Analysis directives: 
.PROBE V(alias(*)) I(alias(*)) W(alias(*)) D(alias(*)) NOISE(alias(*)) 
.INC "..\SCHEMATIC1.net" 



**** INCLUDING SCHEMATIC1.net ****
* source TWO-DIODIKAS
I_I1         N00082 N00098 DC 0Adc  
R_R1         N00094 N00082  1k TC=0,0 
R_R2         N00098 N00094  1k TC=0,0 

**** RESUMING Vah-bias.cir ****
.END

ERROR -- Node N00082 is floating
ERROR -- Node N00098 is floating
ERROR -- Node N00094 is floating